// Generated for: spectre
// Generated on: Mar  5 23:55:51 2022
// Design library name: NE2
// Design cell name: tb_nmos
// Design view name: schematic
simulator lang=spectre
global 0
